*Heading
** Job name: Do228n Model name: Model-1
** Generated by: Abaqus/CAE 2016
*Preprint, echo=NO, model=NO, history=NO, contact=NO
**
** PARTS
**
*Part, name=Do228
*Node
      1,        2512.,           0.,        -391.
      2,        2512.,        -124.,           0.
      3,        1201.,        -124.,  9.79445502e-09
      4,        1201.,           0.,        -391.
      5,        2512.,         124.,           0.
      6,        2691.,         124.,           0.
      7,        2691.,           0.,        -391.
      8,        2512.,           0.,         124.
      9,        2691.,        -124.,           0.
     10,        2691.,           0.,         124.
     11,        1201.,         124.,           0.
     12,        1201.,           0.,         124.
     13,        2512.,           0.,           0.
     14,        2691.,           0.,           0.
     15,        1201.,           0.,           0.
     16,        1051.,        -124.,           0.
     17,        1051.,           0.,           0.
     18,        1051.,           0.,        -391.
     19,        1051.,           0.,         124.
     20,        1051.,         124.,           0.
** ... 6136 like lines cut
*Element, type=S4R
  1,    1,   36,  905,  167
  2,   36,   37,  906,  905
  3,   37,   38,  907,  906
  4,   38,   39,  908,  907
  5,   39,   40,  909,  908
  6,   40,   41,  910,  909
  7,   41,   42,  911,  910
  8,   42,   43,  912,  911
  9,   43,   44,  913,  912
 10,   44,   45,  914,  913
 11,   45,   46,  915,  914
 12,   46,   47,  916,  915
 13,   47,   48,  917,  916
 14,   48,   49,  918,  917
 15,   49,   50,  919,  918
 16,   50,    2,   51,  919
 17,  167,  905,  920,  166
 18,  905,  906,  921,  920
 19,  906,  907,  922,  921
 20,  907,  908,  923,  922
** ... 6186 like lines cut
*Nset, nset=Skin
    1,    2,    3,    4,    5,    6,    7,    8,    9,   10,   11,   12,   16,   18,   19,   20
   21,   22,   23,   24,   26,   27,   28,   30,   31,   32,   34,   35,   36,   37,   38,   39
   40,   41,   42,   43,   44,   45,   46,   47,   48,   49,   50,   51,   52,   53,   54,   55
   56,   57,   58,   59,   60,   61,   62,   63,   64,   65,   66,   67,   68,   69,   70,   71
   72,   73,   74,   75,   76,   77,   78,   79,   80,   81,   82,   83,   84,   85,   86,   87
   88,   89,   90,   91,   92,   93,   94,   95,   96,   97,   98,   99,  100,  101,  102,  103
  104,  105,  106,  107,  108,  109,  110,  111,  112,  113,  114,  115,  116,  117,  118,  119
  120,  121,  122,  123,  124,  125,  126,  127,  128,  129,  130,  131,  132,  133,  134,  135
  136,  137,  138,  139,  140,  141,  142,  143,  144,  145,  146,  147,  148,  149,  150,  151
  152,  153,  154,  155,  156,  157,  158,  159,  160,  161,  162,  163,  164,  165,  166,  167
  168,  169,  170,  171,  172,  173,  174,  175,  176,  177,  178,  179,  180,  181,  182,  183
  184,  185,  186,  187,  188,  189,  190,  191,  192,  193,  194,  195,  196,  197,  198,  199
  200,  201,  202,  203,  204,  205,  206,  207,  208,  209,  210,  211,  212,  213,  214,  215
  216,  217,  218,  219,  220,  221,  222,  223,  224,  225,  226,  227,  228,  229,  230,  231
  232,  233,  234,  235,  236,  237,  238,  239,  240,  241,  242,  243,  244,  245,  246,  247
  248,  249,  250,  251,  252,  253,  254,  255,  256,  257,  258,  259,  260,  261,  262,  263
  264,  265,  266,  267,  268,  269,  270,  271,  272,  273,  274,  275,  276,  277,  278,  279
  280,  281,  282,  283,  284,  285,  286,  287,  288,  289,  290,  291,  292,  293,  294,  295
  296,  297,  298,  299,  300,  301,  302,  303,  304,  305,  306,  307,  308,  309,  310,  311
  312,  313,  314,  315,  316,  317,  318,  319,  320,  321,  322,  323,  324,  325,  326,  327
** ... 304 like lines cut
*Elset, elset=Skin
    1,    2,    3,    4,    5,    6,    7,    8,    9,   10,   11,   12,   13,   14,   15,   16
   17,   18,   19,   20,   21,   22,   23,   24,   25,   26,   27,   28,   29,   30,   31,   32
   33,   34,   35,   36,   37,   38,   39,   40,   41,   42,   43,   44,   45,   46,   47,   48
   49,   50,   51,   52,   53,   54,   55,   56,   57,   58,   59,   60,   61,   62,   63,   64
   65,   66,   67,   68,   69,   70,   71,   72,   73,   74,   75,   76,   77,   78,   79,   80
   81,   82,   83,   84,   85,   86,   87,   88,   89,   90,   91,   92,   93,   94,   95,   96
   97,   98,   99,  100,  101,  102,  103,  104,  105,  106,  107,  108,  109,  110,  111,  112
  113,  114,  115,  116,  117,  118,  119,  120,  121,  122,  123,  124,  125,  126,  127,  128
  129,  130,  131,  132,  133,  134,  135,  136,  137,  138,  139,  140,  141,  142,  143,  144
  145,  146,  147,  148,  149,  150,  151,  152,  153,  154,  155,  156,  157,  158,  159,  160
  161,  162,  163,  164,  165,  166,  167,  168,  169,  170,  171,  172,  173,  174,  175,  176
  177,  178,  179,  180,  181,  182,  183,  184,  185,  186,  187,  188,  189,  190,  191,  192
  193,  194,  195,  196,  197,  198,  199,  200,  201,  202,  203,  204,  205,  206,  207,  208
  209,  210,  211,  212,  213,  214,  215,  216,  217,  218,  219,  220,  221,  222,  223,  224
  225,  226,  227,  228,  229,  230,  231,  232,  233,  234,  235,  236,  237,  238,  239,  240
  241,  242,  243,  244,  245,  246,  247,  248,  249,  250,  251,  252,  253,  254,  255,  256
  257,  258,  259,  260,  261,  262,  263,  264,  265,  266,  267,  268,  269,  270,  271,  272
  273,  274,  275,  276,  277,  278,  279,  280,  281,  282,  283,  284,  285,  286,  287,  288
  289,  290,  291,  292,  293,  294,  295,  296,  297,  298,  299,  300,  301,  302,  303,  304
  305,  306,  307,  308,  309,  310,  311,  312,  313,  314,  315,  316,  317,  318,  319,  320
** ... 301 like lines cut
*Nset, nset=Spar
    2,    3,    5,    6,    9,   11,   13,   14,   15,   16,   17,   20,   21,   23,   25,   26
   28,   29,   31,   33,   34,   51,   52,   53,   54,   55,   56,   57,   58,   59,   60,   61
   62,   63,   64,   65,   66,   67,   68,   69,   70,   71,   72,   73,   74,   75,   76,   77
   78,   79,   80,   81,   82,   83,   84,   85,   86,   87,   88,   89,   90,   91,   92,   93
   94,   95,   96,   97,   98,   99,  100,  101,  183,  184,  185,  186,  187,  188,  217,  218
  219,  220,  221,  222,  243,  244,  245,  246,  247,  248,  249,  250,  251,  252,  253,  254
  255,  256,  257,  258,  259,  260,  261,  262,  263,  264,  265,  266,  267,  268,  269,  270
  271,  272,  273,  274,  275,  276,  277,  278,  279,  280,  281,  282,  283,  284,  285,  286
  287,  288,  289,  290,  291,  292,  293,  352,  353,  354,  355,  356,  357,  358,  359,  360
  361,  362,  363,  364,  365,  366,  367,  368,  369,  370,  371,  372,  373,  374,  375,  376
  377,  378,  379,  380,  381,  382,  383,  384,  385,  386,  387,  388,  389,  390,  391,  392
  393,  394,  395,  396,  397,  398,  399,  400,  401,  402,  403,  404,  405,  406,  407,  408
  409,  410,  411,  412,  413,  414,  415,  416,  417,  418,  419,  420,  421,  422,  423,  424
  425,  426,  427,  428,  429,  430,  431,  432,  433,  434,  435,  436,  437,  438,  439,  440
  441,  442,  443,  444,  445,  446,  523,  524,  525,  526,  527,  528,  529,  530,  531,  532
  560,  561,  562,  563,  564,  577,  578,  579,  580,  581,  582,  583,  584,  585,  586,  587
  588,  589,  597,  598,  599,  600,  601,  602,  603,  604,  605,  606,  607,  608,  609,  610
  611,  612,  613,  614,  615,  616,  617,  618,  619,  620,  621,  622,  623,  624,  660,  661
  662,  663,  664,  665,  666,  667,  668,  669,  670,  671,  672,  673,  674,  675,  676,  677
  678,  679,  680,  681,  682,  683,  684,  685,  686,  687,  688,  689,  690,  691,  692,  693
** ... 55 like lines cut
*Elset, elset=Spar
 1417, 1418, 1419, 1420, 1421, 1422, 1423, 1424, 1425, 1426, 1427, 1428, 1429, 1430, 1431, 1432
 1433, 1434, 1435, 1436, 1437, 1438, 1439, 1440, 1441, 1442, 1443, 1444, 1445, 1446, 1447, 1448
 1449, 1450, 1451, 1452, 1453, 1454, 1455, 1456, 1457, 1458, 1459, 1460, 1461, 1462, 1463, 1464
 1465, 1466, 1467, 1468, 1469, 1470, 1471, 1472, 1473, 1474, 1475, 1476, 1477, 1478, 1479, 1480
 1481, 1482, 1483, 1484, 1485, 1486, 1487, 1488, 1489, 1490, 1491, 1492, 1493, 1494, 1495, 1496
 1497, 1498, 1499, 1500, 1501, 1502, 1503, 1504, 1505, 1506, 1507, 1508, 1509, 1510, 1511, 1512
 1513, 1514, 1515, 1516, 1517, 1518, 1519, 1520, 1521, 1522, 1523, 1524, 1525, 1526, 1527, 1528
 1529, 1530, 1531, 1532, 1533, 1534, 1535, 1536, 1537, 1538, 1539, 1540, 1541, 1542, 1543, 1544
 1545, 1546, 1547, 1548, 1549, 1550, 1551, 1552, 1553, 1554, 1555, 1556, 1557, 1558, 1559, 1560
 1561, 1562, 1563, 1564, 1565, 1566, 1567, 1568, 1569, 1570, 1571, 1572, 1573, 1574, 1575, 1576
 1577, 1578, 1579, 1580, 1581, 1582, 1583, 1584, 1585, 1586, 1587, 1588, 1589, 1590, 1591, 1592
 1593, 1594, 1595, 1596, 1597, 1598, 1599, 1600, 1601, 1602, 1603, 1604, 1605, 1606, 1607, 1608
 1609, 1610, 1611, 1612, 1613, 1614, 1615, 1616, 1617, 1618, 1619, 1620, 1621, 1622, 1623, 1624
 1625, 1626, 1627, 1628, 1629, 1630, 1631, 1632, 1633, 1634, 1635, 1636, 1637, 1638, 1639, 1640
 1641, 1642, 1643, 1644, 1645, 1646, 1647, 1648, 1649, 1650, 1651, 1652, 1653, 1654, 1655, 1656
 1657, 1658, 1659, 1660, 1661, 1662, 1663, 1664, 1665, 1666, 1667, 1668, 1669, 1670, 1671, 1672
 1673, 1674, 1675, 1676, 1677, 1678, 1679, 1680, 1681, 1682, 1683, 1684, 1685, 1686, 1687, 1688
 1689, 1690, 1691, 1692, 1693, 1694, 1695, 1696, 1697, 1698, 1699, 1700, 1701, 1702, 1703, 1704
 1705, 1706, 1707, 1708, 1709, 1710, 1711, 1712, 1713, 1714, 1715, 1716, 1717, 1718, 1719, 1720
 1721, 1722, 1723, 1724, 1725, 1726, 1727, 1728, 1729, 1730, 1731, 1732, 1733, 1734, 1735, 1736
** ... 47 like lines cut
** Section: Skin
*Shell Section, elset=Skin, material=Aluminium
1.58, 5
** Section: Spar
*Shell Section, elset=Spar, material=Aluminium
2.2, 5
*End Part
**  
**
** ASSEMBLY
**
*Assembly, name=Assembly
**  
*Instance, name=Do228-1, part=Do228
*End Instance
**  
*Node
      1,         174.,           0.,           0.
*Node
      2,         901.,         124.,         124.
*Node
      3,        1051.,           0.,           0.
*Node
      4,        1201.,         124.,         124.
*Node
      5,        2512.,           0.,           0.
*Node
      6,           0.,           0.,        -4.75
*Node
      7,   269.100006,           0.,        -4.75
*Node
      8,   538.200012,           0.,        -4.75
*Node
      9,   807.299988,           0.,        -4.75
*Node
     10,   1076.40002,           0.,        -4.75
*Node
     11,       1345.5,           0.,        -4.75
*Node
     12,   1614.59998,           0.,        -4.75
*Node
     13,   1883.69995,           0.,        -4.75
*Node
     14,   2152.80005,           0.,        -4.75
*Node
     15,    2421.8999,           0.,        -4.75
*Node
     16,        2691.,           0.,        -4.75
*Nset, nset=Hinge_2, instance=Do228-1
  16,  17,  18,  19,  20, 438, 439, 440, 441, 447, 448, 449, 450, 451, 452, 453
 454, 455, 456, 457, 458, 459, 460, 461, 501, 502, 503, 504, 505, 506, 507, 508
 509, 510, 511, 512, 513, 514, 515, 516, 517, 518, 519, 520, 521, 522, 553, 554
 555, 556, 557, 558, 559, 577, 578, 579, 580
*Nset, nset=Point_6, instance=Do228-1
  31,  32,  33,  34,  35, 818, 819, 820, 821, 822, 823, 824, 825, 826, 827, 828
 829, 830, 831, 832, 849, 850, 851, 852, 866, 867, 868, 869, 876, 877, 878, 879
 880, 881, 882, 883, 884, 885, 886, 887, 888, 889, 890, 891, 892, 893, 894, 895
 896, 897, 898, 899, 900, 901, 902, 903, 904
*Nset, nset=Point_7, instance=Do228-1
  621,  635,  688,  699,  778, 4317, 4318, 4319, 4320, 4321, 4322, 4323, 4461, 4462, 4463, 4464
 4927, 4928, 4929, 4930, 4931, 4932, 4933, 4934, 4935, 4936, 4937, 4938, 4939, 4940, 4941, 5379
 5380, 5381, 5382, 5383, 5384, 5385, 5589, 5590, 5591, 5592, 6055, 6056, 6057, 6058, 6059, 6060
 6061, 6062, 6063, 6064, 6065, 6066, 6067, 6068, 6069
*Nset, nset=Point_8, instance=Do228-1
  610,  646,  677,  710,  767, 4240, 4241, 4242, 4243, 4244, 4245, 4246, 4417, 4418, 4419, 4420
 4762, 4763, 4764, 4765, 4766, 4767, 4768, 4769, 4770, 4771, 4772, 4773, 4774, 4775, 4776, 5302
 5303, 5304, 5305, 5306, 5307, 5308, 5545, 5546, 5547, 5548, 5890, 5891, 5892, 5893, 5894, 5895
 5896, 5897, 5898, 5899, 5900, 5901, 5902, 5903, 5904
*Nset, nset=Point_9, instance=Do228-1
  600,  656,  667,  720,  757, 4170, 4171, 4172, 4173, 4174, 4175, 4176, 4377, 4378, 4379, 4380
 4612, 4613, 4614, 4615, 4616, 4617, 4618, 4619, 4620, 4621, 4622, 4623, 4624, 4625, 4626, 5232
 5233, 5234, 5235, 5236, 5237, 5238, 5505, 5506, 5507, 5508, 5740, 5741, 5742, 5743, 5744, 5745
 5746, 5747, 5748, 5749, 5750, 5751, 5752, 5753, 5754
*Nset, nset=Point_10, instance=Do228-1
  437,  442,  462,  500,  523, 2427, 2428, 2429, 2430, 2491, 2492, 2493, 2494, 2495, 2496, 2497
 2498, 2499, 2500, 2501, 2502, 2503, 2504, 2505, 3341, 3342, 3343, 3344, 3345, 3346, 3347, 3408
 3409, 3410, 3411, 3412, 3413, 3414, 3415, 3416, 3417, 3418, 3419, 3420, 3421, 3422, 4361, 4362
 4363, 4364, 5180, 5181, 5182, 5183, 5184, 5185, 5186
*Nset, nset=Point_11, instance=Do228-1
   96,  122,  288,  306,  415, 1580, 1581, 1582, 1583, 1584, 1585, 1586, 1587, 1588, 1589, 1590
 1591, 1592, 1593, 1594, 2117, 2118, 2119, 2120, 2121, 2122, 2123, 2363, 2364, 2365, 2366, 3181
 3182, 3183, 3184, 3185, 3186, 3187, 3188, 3189, 3190, 3191, 3192, 3193, 3194, 3195, 3848, 3849
 3850, 3851, 3852, 3853, 3854, 4070, 4071, 4072, 4073
*Nset, nset=Point_12, instance=Do228-1
   86,  132,  278,  316,  405, 1430, 1431, 1432, 1433, 1434, 1435, 1436, 1437, 1438, 1439, 1440
 1441, 1442, 1443, 1444, 2047, 2048, 2049, 2050, 2051, 2052, 2053, 2323, 2324, 2325, 2326, 3031
 3032, 3033, 3034, 3035, 3036, 3037, 3038, 3039, 3040, 3041, 3042, 3043, 3044, 3045, 3778, 3779
 3780, 3781, 3782, 3783, 3784, 4030, 4031, 4032, 4033
*Nset, nset=Point_13, instance=Do228-1
   75,  143,  267,  327,  394, 1265, 1266, 1267, 1268, 1269, 1270, 1271, 1272, 1273, 1274, 1275
 1276, 1277, 1278, 1279, 1970, 1971, 1972, 1973, 1974, 1975, 1976, 2279, 2280, 2281, 2282, 2866
 2867, 2868, 2869, 2870, 2871, 2872, 2873, 2874, 2875, 2876, 2877, 2878, 2879, 2880, 3701, 3702
 3703, 3704, 3705, 3706, 3707, 3986, 3987, 3988, 3989
*Nset, nset=Point_14, instance=Do228-1
   64,  154,  256,  338,  383, 1100, 1101, 1102, 1103, 1104, 1105, 1106, 1107, 1108, 1109, 1110
 1111, 1112, 1113, 1114, 1893, 1894, 1895, 1896, 1897, 1898, 1899, 2235, 2236, 2237, 2238, 2701
 2702, 2703, 2704, 2705, 2706, 2707, 2708, 2709, 2710, 2711, 2712, 2713, 2714, 2715, 3624, 3625
 3626, 3627, 3628, 3629, 3630, 3942, 3943, 3944, 3945
*Nset, nset=Point_15, instance=Do228-1
   54,  164,  246,  348,  373,  950,  951,  952,  953,  954,  955,  956,  957,  958,  959,  960
  961,  962,  963,  964, 1823, 1824, 1825, 1826, 1827, 1828, 1829, 2195, 2196, 2197, 2198, 2551
 2552, 2553, 2554, 2555, 2556, 2557, 2558, 2559, 2560, 2561, 2562, 2563, 2564, 2565, 3554, 3555
 3556, 3557, 3558, 3559, 3560, 3902, 3903, 3904, 3905
*Nset, nset=Point_16, instance=Do228-1
   6,   7,   9,  10,  14, 189, 190, 191, 192, 193, 194, 195, 196, 197, 198, 199
 200, 201, 202, 203, 223, 224, 225, 226, 227, 228, 229, 362, 363, 364, 365, 425
 426, 427, 428, 482, 483, 484, 485, 486, 487, 488, 724, 725, 726, 727, 728, 729
 730, 731, 732, 733, 734, 735, 736, 737, 738
*Nset, nset=Rib_A, instance=Do228-1
  26,  27,  28,  29,  30, 625, 626, 627, 628, 629, 630, 631, 692, 693, 694, 695
 782, 783, 784, 785, 786, 787, 788, 789, 790, 791, 792, 793, 794, 795, 796, 797
 798, 799, 800, 801, 802, 803, 804, 805, 806, 807, 808, 809, 810, 811, 839, 840
 841, 842, 859, 860, 861, 862, 863, 864, 865
*Nset, nset=Rib_B, instance=Do228-1
  21,  22,  23,  24,  25, 533, 534, 535, 536, 537, 538, 539, 540, 541, 542, 543
 544, 545, 546, 547, 565, 566, 567, 568, 569, 570, 571, 586, 587, 588, 589, 590
 591, 592, 593, 594, 595, 596, 660, 661, 662, 663, 739, 740, 741, 742, 743, 744
 745, 746, 747, 748, 749, 750, 751, 752, 753
*Nset, nset=Rib_C, instance=Do228-1
   3,   4,  11,  12,  15, 102, 103, 104, 105, 106, 107, 108, 109, 110, 111, 112
 113, 114, 115, 116, 294, 295, 296, 297, 298, 299, 300, 421, 422, 423, 424, 429
 430, 431, 432, 467, 468, 469, 470, 471, 472, 473, 474, 475, 476, 477, 478, 479
 480, 481, 489, 490, 491, 492, 493, 494, 495
*Nset, nset=Rib_D, instance=Do228-1
   1,   2,   5,   8,  13,  36,  37,  38,  39,  40,  41,  42,  43,  44,  45,  46
  47,  48,  49,  50, 168, 169, 170, 171, 172, 173, 174, 175, 176, 177, 178, 179
 180, 181, 182, 210, 211, 212, 213, 214, 215, 216, 236, 237, 238, 239, 240, 241
 242, 352, 353, 354, 355, 366, 367, 368, 369
*Nset, nset=Set-33
 1,
*Nset, nset=Set-34
 3,
*Nset, nset=Set-35
 5,
*Nset, nset=Set-36
 2,
*Nset, nset=Set-37
 3,
*Nset, nset=Set-38
 6,
*Nset, nset=Set-39
 1,
*Nset, nset=Set-40
 7,
*Nset, nset=Set-41
 8,
*Nset, nset=Set-42
 9,
*Nset, nset=Set-43
 10,
*Nset, nset=Set-44
 11,
*Nset, nset=Set-45
 12,
*Nset, nset=Set-46
 13,
*Nset, nset=Set-47
 14,
*Nset, nset=Set-48
 15,
*Nset, nset=Set-49
 16,
*Nset, nset=Set-50
 4,
*Nset, nset=Set-51
 2,
*Nset, nset=Set-52
** ... 25 like lines cut
*Nset, nset=m_Set-17
 1,
*Nset, nset=m_Set-18
 2,
*Nset, nset=m_Set-19
 4,
*Nset, nset=m_Set-20
 3,
*Nset, nset=m_Set-21
 5,
*Nset, nset=m_Set-22
 6,
*Nset, nset=m_Set-23
 7,
*Nset, nset=m_Set-24
 8,
*Nset, nset=m_Set-25
 9,
*Nset, nset=m_Set-26
 10,
*Nset, nset=m_Set-27
 11,
*Nset, nset=m_Set-28
 12,
*Nset, nset=m_Set-29
 13,
*Nset, nset=m_Set-30
 14,
*Nset, nset=m_Set-31
 15,
*Nset, nset=m_Set-32
 16,
*Surface, type=NODE, name=Rib_A_CNS_, internal
Rib_A, 1.
*Surface, type=NODE, name=Rib_B_CNS_, internal
Rib_B, 1.
*Surface, type=NODE, name=Rib_C_CNS_, internal
Rib_C, 1.
*Surface, type=NODE, name=Hinge_2_CNS_, internal
Hinge_2, 1.
*Surface, type=NODE, name=Rib_D_CNS_, internal
Rib_D, 1.
*Surface, type=NODE, name=Point_6_CNS_, internal
Point_6, 1.
*Surface, type=NODE, name=Point_7_CNS_, internal
Point_7, 1.
*Surface, type=NODE, name=Point_8_CNS_, internal
Point_8, 1.
*Surface, type=NODE, name=Point_9_CNS_, internal
Point_9, 1.
*Surface, type=NODE, name=Point_10_CNS_, internal
Point_10, 1.
*Surface, type=NODE, name=Point_11_CNS_, internal
Point_11, 1.
*Surface, type=NODE, name=Point_12_CNS_, internal
Point_12, 1.
*Surface, type=NODE, name=Point_13_CNS_, internal
Point_13, 1.
*Surface, type=NODE, name=Point_14_CNS_, internal
Point_14, 1.
*Surface, type=NODE, name=Point_15_CNS_, internal
Point_15, 1.
*Surface, type=NODE, name=Point_16_CNS_, internal
Point_16, 1.
** Constraint: Constraint-1
*MPC
BEAM, Rib_A, m_Set-17
** Constraint: Constraint-2
*MPC
BEAM, Rib_B, m_Set-18
** Constraint: Constraint-3
*MPC
BEAM, Rib_C, m_Set-19
** Constraint: Constraint-4
*MPC
BEAM, Hinge_2, m_Set-20
** Constraint: Constraint-5
*MPC
BEAM, Rib_D, m_Set-21
** Constraint: Constraint-6
*MPC
BEAM, Point_6, m_Set-22
** Constraint: Constraint-7
*MPC
BEAM, Point_7, m_Set-23
** Constraint: Constraint-8
*MPC
BEAM, Point_8, m_Set-24
** Constraint: Constraint-9
*MPC
BEAM, Point_9, m_Set-25
** Constraint: Constraint-10
*MPC
BEAM, Point_10, m_Set-26
** Constraint: Constraint-11
*MPC
BEAM, Point_11, m_Set-27
** Constraint: Constraint-12
*MPC
BEAM, Point_12, m_Set-28
** Constraint: Constraint-13
*MPC
BEAM, Point_13, m_Set-29
** Constraint: Constraint-14
*MPC
BEAM, Point_14, m_Set-30
** Constraint: Constraint-15
*MPC
BEAM, Point_15, m_Set-31
** Constraint: Constraint-16
*MPC
BEAM, Point_16, m_Set-32
*End Assembly
** 
** MATERIALS
** 
*Material, name=Aluminium
*Elastic
 73.1, 0.33
** 
** BOUNDARY CONDITIONS
** 
** Name: Hinge_1 Type: Displacement/Rotation
*Boundary
Set-33, 1, 1
Set-33, 2, 2
Set-33, 3, 3
** Name: Hinge_2 Type: Displacement/Rotation
*Boundary
Set-34, 1, 1
Set-34, 2, 2
Set-34, 3, 3
** Name: Hinge_3 Type: Displacement/Rotation
*Boundary
Set-35, 1, 1
Set-35, 2, 2
** ----------------------------------------------------------------
** 
** STEP: RotateUp
** 
*Step, name=RotateUp, nlgeom=NO
*Static
1., 1., 1e-05, 1.
** 
** BOUNDARY CONDITIONS
** 
** Name: Hinge_1 Type: Displacement/Rotation
*Boundary
Set-33, 2, 2, 40.69
** Name: Hinge_2 Type: Displacement/Rotation
*Boundary
Set-34, 4, 4, 0.4363
** Name: Hinge_3 Type: Displacement/Rotation
*Boundary
Set-35, 2, 2, 81.35
** 
** OUTPUT REQUESTS
** 
*Restart, write, frequency=0
** 
** FIELD OUTPUT: F-Output-1
** 
*Output, field
*Node Output
RF, U
*Element Output, directions=YES
MISES, 
** 
** HISTORY OUTPUT: H-Output-1
** 
*Output, history, variable=PRESELECT
*End Step
** ----------------------------------------------------------------
** 
** STEP: Jam1
** 
*Step, name=Jam1, nlgeom=NO
*Static
1., 1., 1e-05, 1.
** 
** BOUNDARY CONDITIONS
** 
** Name: Actuator_1 Type: Displacement/Rotation
*Boundary, fixed
Set-36, 3, 3
** 
** LOADS
** 
** Name: Load-2   Type: Concentrated force
*Cload
Set-38, 2, -0.135
Set-38, 3, 0.
** Name: Load-3   Type: Concentrated force
*Cload
Set-40, 2, -0.27
** Name: Load-4   Type: Concentrated force
*Cload
Set-41, 2, -0.27
** Name: Load-5   Type: Concentrated force
*Cload
Set-42, 2, -0.27
** Name: Load-6   Type: Concentrated force
*Cload
Set-43, 2, -0.27
** Name: Load-7   Type: Concentrated force
*Cload
Set-44, 2, -0.27
** Name: Load-8   Type: Concentrated force
*Cload
Set-45, 2, -0.27
** Name: Load-9   Type: Concentrated force
*Cload
Set-46, 2, -0.27
** Name: Load-10   Type: Concentrated force
*Cload
Set-47, 2, -0.27
** Name: Load-11   Type: Concentrated force
*Cload
Set-48, 2, -0.27
** Name: Load-12   Type: Concentrated force
*Cload
Set-49, 2, -0.135
** Name: Load-13   Type: Concentrated force
*Cload
Set-50, 3, -20.96
** 
** OUTPUT REQUESTS
** 
*Restart, write, frequency=0
** 
** FIELD OUTPUT: F-Output-1
** 
*Output, field
*Node Output
RF, U
*Element Output, directions=YES
MISES, 
** 
** HISTORY OUTPUT: H-Output-1
** 
*Output, history, variable=PRESELECT
*End Step
** ----------------------------------------------------------------
** 
** STEP: RotateDown
** 
*Step, name=RotateDown, nlgeom=NO
*Static
1., 1., 1e-05, 1.
** 
** BOUNDARY CONDITIONS
** 
** Name: Actuator_1 Type: Displacement/Rotation
*Boundary, op=NEW
** Name: Hinge_1 Type: Displacement/Rotation
*Boundary, op=NEW
Set-33, 1, 1
Set-33, 2, 2, 40.69
Set-33, 3, 3
** Name: Hinge_2 Type: Displacement/Rotation
*Boundary, op=NEW
Set-34, 1, 1
Set-34, 2, 2
Set-34, 3, 3
Set-34, 4, 4, -0.3142
** Name: Hinge_3 Type: Displacement/Rotation
*Boundary, op=NEW
Set-35, 1, 1
Set-35, 2, 2, 81.35
** 
** LOADS
** 
** Name: Load-2   Type: Concentrated force
*Cload, op=NEW
** Name: Load-3   Type: Concentrated force
*Cload, op=NEW
** Name: Load-4   Type: Concentrated force
*Cload, op=NEW
** Name: Load-5   Type: Concentrated force
*Cload, op=NEW
** Name: Load-6   Type: Concentrated force
*Cload, op=NEW
** Name: Load-7   Type: Concentrated force
*Cload, op=NEW
** Name: Load-8   Type: Concentrated force
*Cload, op=NEW
** Name: Load-9   Type: Concentrated force
*Cload, op=NEW
** Name: Load-10   Type: Concentrated force
*Cload, op=NEW
** Name: Load-11   Type: Concentrated force
*Cload, op=NEW
** Name: Load-12   Type: Concentrated force
*Cload, op=NEW
** Name: Load-13   Type: Concentrated force
*Cload, op=NEW
** 
** OUTPUT REQUESTS
** 
*Restart, write, frequency=0
** 
** FIELD OUTPUT: F-Output-1
** 
*Output, field
*Node Output
RF, U
*Element Output, directions=YES
MISES, 
** 
** HISTORY OUTPUT: H-Output-1
** 
*Output, history, variable=PRESELECT
*End Step
** ----------------------------------------------------------------
** 
** STEP: Jam2
** 
*Step, name=Jam2, nlgeom=NO
*Static
1., 1., 1e-05, 1.
** 
** BOUNDARY CONDITIONS
** 
** Name: BC-5 Type: Displacement/Rotation
*Boundary, fixed
Set-51, 3, 3
** 
** LOADS
** 
** Name: Load-14   Type: Concentrated force
*Cload
Set-52, 3, 20.96
** Name: Load-15   Type: Concentrated force
*Cload
Set-53, 2, 0.09
** Name: Load-16   Type: Concentrated force
*Cload
Set-54, 2, 0.18
** Name: Load-17   Type: Concentrated force
*Cload
Set-55, 2, 0.18
** Name: Load-18   Type: Concentrated force
*Cload
Set-56, 2, 0.18
** Name: Load-19   Type: Concentrated force
*Cload
Set-57, 2, 0.18
** Name: Load-20   Type: Concentrated force
*Cload
Set-58, 2, 0.18
** Name: Load-21   Type: Concentrated force
*Cload
Set-59, 2, 0.18
** Name: Load-22   Type: Concentrated force
*Cload
Set-60, 2, 0.18
** Name: Load-23   Type: Concentrated force
*Cload
Set-61, 2, 0.18
** Name: Load-24   Type: Concentrated force
*Cload
Set-62, 2, 0.18
** Name: Load-25   Type: Concentrated force
*Cload
Set-63, 2, 0.18
** Name: Load-26   Type: Concentrated force
*Cload
Set-64, 2, 0.09
** 
** OUTPUT REQUESTS
** 
*Restart, write, frequency=0
** 
** FIELD OUTPUT: F-Output-1
** 
*Output, field
*Node Output
RF, U
*Element Output, directions=YES
MISES, 
** 
** HISTORY OUTPUT: H-Output-1
** 
*Output, history, variable=PRESELECT
*End Step
